Version 4
SHEET 1 1460 680
WIRE -192 -320 -592 -320
WIRE 32 -320 -192 -320
WIRE 192 -320 32 -320
WIRE 320 -320 192 -320
WIRE 192 -272 192 -320
WIRE -592 -256 -592 -320
WIRE 320 -240 320 -320
WIRE 288 -208 272 -208
WIRE 192 -176 192 -192
WIRE 272 -176 272 -208
WIRE 272 -176 192 -176
WIRE -400 -144 -400 -176
WIRE -176 -144 -256 -144
WIRE -64 -144 -96 -144
WIRE 192 -144 192 -176
WIRE -592 -112 -592 -176
WIRE 320 -112 320 -176
WIRE 320 -112 -32 -112
WIRE 32 -96 32 -320
WIRE -192 -80 -192 -320
WIRE -32 -80 -32 -112
WIRE 0 -80 -32 -80
WIRE -256 -64 -256 -144
WIRE -256 -64 -400 -64
WIRE -224 -64 -256 -64
WIRE 192 -64 192 -80
WIRE 192 -64 64 -64
WIRE -64 -48 -64 -144
WIRE -64 -48 -160 -48
WIRE 0 -48 -64 -48
WIRE 16 -48 0 -48
WIRE 320 -48 320 -112
WIRE 464 -48 320 -48
WIRE -528 -32 -592 -32
WIRE -368 -32 -464 -32
WIRE -256 -32 -288 -32
WIRE -224 -32 -256 -32
WIRE 192 -16 192 -64
WIRE -592 16 -592 -32
WIRE -256 16 -256 -32
WIRE 464 16 464 -48
WIRE 320 48 320 -48
WIRE 288 80 256 80
WIRE -256 112 -256 80
WIRE 192 112 192 48
WIRE 256 112 256 80
WIRE 256 112 192 112
WIRE -592 144 -592 96
WIRE 464 160 464 96
WIRE -192 224 -192 -16
WIRE -192 224 -592 224
WIRE 32 224 32 -32
WIRE 32 224 -192 224
WIRE 192 224 192 192
WIRE 192 224 32 224
WIRE 320 224 320 112
WIRE 320 224 192 224
WIRE -592 240 -592 224
WIRE -592 368 -592 320
FLAG -592 144 0
FLAG 464 160 0
FLAG -256 112 0
FLAG -592 -112 0
FLAG -592 368 0
FLAG -400 -176 0
SYMBOL res -80 -160 R90
WINDOW 0 0 56 VBottom 2
WINDOW 3 32 56 VTop 2
SYMATTR InstName R1
SYMATTR Value 9k
SYMBOL voltage -592 0 R0
WINDOW 3 13 124 Left 2
WINDOW 123 16 98 Left 2
WINDOW 39 0 0 Left 0
SYMATTR Value SINE(0 1 100 0)
SYMATTR Value2 AC 1
SYMATTR InstName V1
SYMBOL res -416 -160 R0
SYMATTR InstName R2
SYMATTR Value 1k
SYMBOL res 448 0 R0
SYMATTR InstName R4
SYMATTR Value 4
SYMBOL res 176 96 R0
SYMATTR InstName R5
SYMATTR Value 10k
SYMBOL res 176 -288 R0
SYMATTR InstName R6
SYMATTR Value 10k
SYMBOL OpAmps\\LT1124 -192 -112 R0
SYMATTR InstName U2
SYMBOL OpAmps\\LT1124 32 -128 R0
SYMATTR InstName U1
SYMBOL diode 176 -144 R0
SYMATTR InstName D1
SYMATTR Value 1N4148
SYMBOL diode 176 -16 R0
WINDOW 3 -77 62 Left 2
SYMATTR Value 1N4148
SYMATTR InstName D2
SYMBOL res -272 -48 R90
WINDOW 0 59 85 VBottom 2
WINDOW 3 31 37 VTop 2
SYMATTR InstName R7
SYMATTR Value 1k
SYMBOL cap -272 16 R0
SYMATTR InstName C1
SYMATTR Value 1n
SYMBOL AutoGenerated\\irfz34n 320 -208 R0
WINDOW 0 50 -19 Bottom 2
WINDOW 3 75 17 Top 2
SYMATTR InstName U3
SYMBOL AutoGenerated\\irf9z24n 320 80 M180
WINDOW 0 51 45 Bottom 2
WINDOW 3 82 -45 Top 2
SYMATTR InstName U4
SYMBOL voltage -592 224 R0
WINDOW 123 0 0 Left 0
WINDOW 39 0 0 Left 0
SYMATTR InstName V2
SYMATTR Value -20V
SYMBOL voltage -592 -272 R0
WINDOW 123 0 0 Left 0
WINDOW 39 0 0 Left 0
SYMATTR InstName V3
SYMATTR Value 20V
SYMBOL cap -464 -48 R90
WINDOW 0 0 32 VBottom 2
WINDOW 3 32 32 VTop 2
SYMATTR InstName C2
SYMATTR Value 10µ
TEXT -576 176 Left 2 ;.tran 0.1
TEXT -576 152 Left 2 !.ac dec 1000 1 20k
TEXT -592 -336 Left 2 ;+20V Supply Rail
TEXT -592 208 Left 2 ;-20V Supply Rail
TEXT 480 8 Left 2 ;Speaker
TEXT 80 -344 Left 2 ;Power Amplifier Stage
TEXT 72 0 VRight 2 ;Transistor Biasing
TEXT 144 -152 Right 1 ;Unity Gain Buffer\nwith Negative Feedback
TEXT -176 -208 Left 2 ;x9 Gain
TEXT -392 32 Left 1 ;Low Pass Filter\nFc: 159kHz
